/*--------------------------------*- C++ -*----------------------------------*\
| =========                 |                                                 |
| \\      /  F ield         | OpenFOAM: The Open Source CFD Toolbox           |
|  \\    /   O peration     | Version:  2312                                  |
|   \\  /    A nd           | Website:  www.openfoam.com                      |
|    \\/     M anipulation  |                                                 |
\*---------------------------------------------------------------------------*/
FoamFile
{
    version     2.0;
    format      binary;
    arch        "LSB;label=32;scalar=64";
    class       volScalarField;
    location    "0";
    object      Q;
}
// * * * * * * * * * * * * * * * * * * * * * * * * * * * * * * * * * * * * * //

dimensions      [0 0 -2 0 0 0 0];

internalField   uniform 0;

boundaryField
{
    A_DUCTIN_WALL_STILL
    {
        type            calculated;
        value           uniform 0;
    }
    A_DUCTIN_WALL_MOVE
    {
        type            calculated;
        value           uniform 0;
    }
    C_VOLUTE_WALL
    {
        type            calculated;
        value           uniform 0;
    }
    inlet
    {
        type            calculated;
        value           uniform 0;
    }
    C_VOLUTE_GAP
    {
        type            calculated;
        value           uniform 0;
    }
    B_RUNNER_SHROUD
    {
        type            calculated;
        value           uniform 0;
    }
    B_RUNNER_HUB
    {
        type            calculated;
        value           uniform 0;
    }
    B_RUNNER_BLADE
    {
        type            calculated;
        value           uniform 0;
    }
    INTERFACE_IMPELLER_VOLUTE_AMI
    {
        type            cyclicAMI;
        value           uniform 0;
    }
    INTERFACE_VOLUTE_IMPELLER_AMI
    {
        type            cyclicAMI;
        value           uniform 0;
    }
    INTERFACE_DUCTIN_IMPELLER_AMI
    {
        type            cyclicAMI;
        value           uniform 0;
    }
    INTERFACE_IMPELLER_DUCTIN_AMI
    {
        type            cyclicAMI;
        value           uniform 0;
    }
    outlet
    {
        type            calculated;
        value           uniform 0;
    }
}


// ************************************************************************* //
