/*--------------------------------*- C++ -*----------------------------------*\
| solids4foam: solid mechanics and fluid-solid interaction simulations        |
| Version:     v2.0                                                           |
| Web:         https://solids4foam.github.io                                  |
| Disclaimer:  This offering is not approved or endorsed by OpenCFD Limited,  |
|              producer and distributor of the OpenFOAM software via          |
|              www.openfoam.com, and owner of the OPENFOAM® and OpenCFD®      |
|              trade marks.                                                   |
\*---------------------------------------------------------------------------*/
FoamFile
{
    version     2.0;
    format      ascii;
    class       dictionary;
    location    "system";
    object      faSchemes;
}
// * * * * * * * * * * * * * * * * * * * * * * * * * * * * * * * * * * * * * //

ddtSchemes
{
    default      steadyState;
}

d2dt2Schemes
{
    default      Euler;
}

interpolationSchemes
{
}

divSchemes
{
    default Gauss linear;
}

gradSchemes
{
    grad(w)    leastSquares;
    grad(theta) leastSquares;
    grad(div(theta))  leastSquares;
}

lnGradSchemes
{
}

laplacianSchemes
{
    default Gauss linear corrected;
}

fluxRequired
{
}

// ************************************************************************* //
