/*--------------------------------*- C++ -*----------------------------------*\
| =========                 |                                                 |
| \\      /  F ield         | OpenFOAM: The Open Source CFD Toolbox           |
|  \\    /   O peration     | Version:  2312                                  |
|   \\  /    A nd           | Website:  www.openfoam.com                      |
|    \\/     M anipulation  |                                                 |
\*---------------------------------------------------------------------------*/
FoamFile
{
    version     2.0;
    format      ascii;
    arch        "LSB;label=32;scalar=64";
    class       polyBoundaryMesh;
    location    "constant/polyMesh";
    object      boundary;
}
// * * * * * * * * * * * * * * * * * * * * * * * * * * * * * * * * * * * * * //

13
(
    A_DUCTIN_WALL_STILL
    {
        type            wall;
        inGroups        1(wall);
        nFaces          74730;
        startFace       13217058;
    }
    A_DUCTIN_WALL_MOVE
    {
        type            wall;
        inGroups        1(wall);
        nFaces          317;
        startFace       13291788;
    }
    C_VOLUTE_WALL
    {
        type            wall;
        inGroups        1(wall);
        nFaces          63707;
        startFace       13292105;
    }
    inlet
    {
        type            patch;
        inGroups        1(wall);
        nFaces          1508;
        startFace       13355812;
    }
    C_VOLUTE_GAP
    {
        type            wall;
        inGroups        1(wall);
        nFaces          8096;
        startFace       13357320;
    }
    B_RUNNER_SHROUD
    {
        type            wall;
        inGroups        1(wall);
        nFaces          44412;
        startFace       13365416;
    }
    B_RUNNER_HUB
    {
        type            wall;
        inGroups        1(wall);
        nFaces          47862;
        startFace       13409828;
    }
    B_RUNNER_BLADE
    {
        type            wall;
        inGroups        1(wall);
        nFaces          51018;
        startFace       13457690;
    }
    INTERFACE_IMPELLER_VOLUTE_AMI
    {
        type            cyclicAMI;
        inGroups        1(cyclicAMI);
        nFaces          12500;
        startFace       13508708;
        matchTolerance  0.0005;
        transform       noOrdering;
        neighbourPatch  INTERFACE_VOLUTE_IMPELLER_AMI;
        AMIMethod       faceAreaWeightAMI;
        requireMatch    0;
        restartUncoveredSourceFace 1;
    }
    INTERFACE_VOLUTE_IMPELLER_AMI
    {
        type            cyclicAMI;
        inGroups        1(cyclicAMI);
        nFaces          3283;
        startFace       13521208;
        matchTolerance  0.0005;
        transform       noOrdering;
        neighbourPatch  INTERFACE_IMPELLER_VOLUTE_AMI;
        AMIMethod       faceAreaWeightAMI;
        requireMatch    0;
        restartUncoveredSourceFace 1;
    }
    INTERFACE_DUCTIN_IMPELLER_AMI
    {
        type            cyclicAMI;
        inGroups        1(cyclicAMI);
        nFaces          1253;
        startFace       13524491;
        matchTolerance  0.0005;
        transform       noOrdering;
        neighbourPatch  INTERFACE_IMPELLER_DUCTIN_AMI;
        AMIMethod       faceAreaWeightAMI;
        requireMatch    0;
        restartUncoveredSourceFace 1;
    }
    INTERFACE_IMPELLER_DUCTIN_AMI
    {
        type            cyclicAMI;
        inGroups        1(cyclicAMI);
        nFaces          8643;
        startFace       13525744;
        matchTolerance  0.0005;
        transform       noOrdering;
        neighbourPatch  INTERFACE_DUCTIN_IMPELLER_AMI;
        AMIMethod       faceAreaWeightAMI;
        requireMatch    0;
        restartUncoveredSourceFace 1;
    }
    outlet
    {
        type            patch;
        nFaces          1436;
        startFace       13534387;
    }
)

// ************************************************************************* //
